<NUMBER OF NODES> 3										
<NUMBER OF LINKS> 3											
<END OF METADATA>											


~ 	Init node 	Term node 	Capacity 	Length 	Free Flow Time 	B	Power	Speed limit 	Toll 	Type	;
	1	2	20	8	10	0.15	4	0	0	0	;
    1	3	20	8	3	0.15	4	0	0	0	;
    3	1	20	8	3	0.15	4	0	0	0	;