<NUMBER OF NODES> 4										
<NUMBER OF LINKS> 9											
<END OF METADATA>											


~ 	Init node 	Term node 	Capacity 	Length 	Free Flow Time 	B	Power	Speed limit 	Toll 	Type	;
	1	2	40	8	18	0.15	4	0	0	0	;
    1	3	40	8	30	0.15	4	0	0	0	;
    2	1	50	8	24	0.15	4	0	0	0	;
    2	3	60	8	24	0.15	4	0	0	0	;
    2	4	40	8	24	0.15	4	0	0	0	;
    3	1	60	8	24	0.15	4	0	0	0	;
    3	2	40	8	30	0.15	4	0	0	0	;
    3	4	40	8	18	0.15	4	0	0	0	;
    4	1	60	8	60	0.15	4	0	0	0	;